Circuit: * C:\Users\gusta\OneDrive\Documents\LTspiceXVII\Fonte Eletrônica.asc

D2: both pins shorted together -- ignoring.
Direct Newton iteration for .op point succeeded.
.step slider=0
.step slider=10
.step slider=20
.step slider=30
.step slider=40
.step slider=50
.step slider=60
.step slider=70
.step slider=75

Date: Sat Jun 27 02:20:27 2020
Total elapsed time: 1.945 seconds.

tnom = 27
temp = 27
method = modified trap
totiter = 6390
traniter = 6383
tranpoints = 3173
accept = 3161
rejected = 12
matrix size = 10
fillins = 0
solver = Normal
Matrix Compiler1: 418 bytes object code size  0.2/0.1/[0.1]
Matrix Compiler2: off  [0.1]/0.1/0.1

